xflr5 v6.61

Plane name :        Plane Name
Polar name :        T1-20.0 m/s-VLM1-Inviscid
Freestream speed :  20.000 m/s


   alpha      Beta       CL          CDi        CDv        CD         CY         Cl         Cm         Cn        Cni       QInf        XCP
   -5.000     0.000  -0.247607   0.003736   0.000000   0.003736   0.000000   0.000000   0.027707  -0.000000  -0.000000   20.0000     0.0181
   -4.500     0.000  -0.212385   0.002756   0.000000   0.002756   0.000000   0.000000   0.019426   0.000000   0.000000   20.0000     0.0148
   -4.000     0.000  -0.177120   0.001926   0.000000   0.001926   0.000000   0.000000   0.011125  -0.000000  -0.000000   20.0000     0.0101
   -3.500     0.000  -0.141818   0.001246   0.000000   0.001246   0.000000   0.000000   0.002806  -0.000000  -0.000000   20.0000     0.0032
   -3.000     0.000  -0.106485   0.000717   0.000000   0.000717   0.000000   0.000000  -0.005529  -0.000000  -0.000000   20.0000    -0.0083
   -2.500     0.000  -0.071128   0.000340   0.000000   0.000340   0.000000   0.000000  -0.013878  -0.000000  -0.000000   20.0000    -0.0313
   -2.000     0.000  -0.035754   0.000114   0.000000   0.000114   0.000000   0.000000  -0.022237  -0.000000  -0.000000   20.0000    -0.0996
   -1.500     0.000  -0.000369   0.000041   0.000000   0.000041   0.000000   0.000000  -0.030603  -0.000000  -0.000000   20.0000   -13.2865
   -1.000     0.000   0.035020   0.000119   0.000000   0.000119   0.000000   0.000000  -0.038976  -0.000000  -0.000000   20.0000     0.1782
   -0.500     0.000   0.070406   0.000351   0.000000   0.000351   0.000000   0.000000  -0.047351  -0.000000  -0.000000   20.0000     0.1076
    0.000     0.000   0.105783   0.000734   0.000000   0.000734   0.000000   0.000000  -0.055727  -0.000000  -0.000000   20.0000     0.0843
    0.500     0.000   0.141144   0.001269   0.000000   0.001269   0.000000   0.000000  -0.064100   0.000000   0.000000   20.0000     0.0726
    1.000     0.000   0.176482   0.001957   0.000000   0.001957   0.000000  -0.000000  -0.072469   0.000000   0.000000   20.0000     0.0657
    1.500     0.000   0.211790   0.002795   0.000000   0.002795   0.000000   0.000000  -0.080831   0.000000   0.000000   20.0000     0.0610
    2.000     0.000   0.247063   0.003785   0.000000   0.003785   0.000000  -0.000000  -0.089183  -0.000000  -0.000000   20.0000     0.0577
    2.500     0.000   0.282292   0.004924   0.000000   0.004924   0.000000   0.000000  -0.097522  -0.000000  -0.000000   20.0000     0.0552
    3.000     0.000   0.317473   0.006213   0.000000   0.006213   0.000000   0.000000  -0.105847   0.000000   0.000000   20.0000     0.0533
    3.500     0.000   0.352598   0.007650   0.000000   0.007650   0.000000   0.000000  -0.114154  -0.000000  -0.000000   20.0000     0.0518
    4.000     0.000   0.387660   0.009235   0.000000   0.009235   0.000000   0.000000  -0.122441  -0.000000  -0.000000   20.0000     0.0505
    4.500     0.000   0.422653   0.010967   0.000000   0.010967   0.000000   0.000000  -0.130706  -0.000000  -0.000000   20.0000     0.0495
    5.000     0.000   0.457571   0.012844   0.000000   0.012844   0.000000   0.000000  -0.138946  -0.000000  -0.000000   20.0000     0.0486
    5.500     0.000   0.492406   0.014864   0.000000   0.014864   0.000000  -0.000000  -0.147158   0.000000   0.000000   20.0000     0.0479
    6.000     0.000   0.527154   0.017027   0.000000   0.017027   0.000000   0.000000  -0.155341   0.000000   0.000000   20.0000     0.0472
    6.500     0.000   0.561806   0.019331   0.000000   0.019331   0.000000   0.000000  -0.163491   0.000000   0.000000   20.0000     0.0466
    7.000     0.000   0.596358   0.021774   0.000000   0.021774   0.000000   0.000000  -0.171605  -0.000000  -0.000000   20.0000     0.0462
    7.500     0.000   0.630801   0.024355   0.000000   0.024355   0.000000   0.000000  -0.179683   0.000000   0.000000   20.0000     0.0457
    8.000     0.000   0.665132   0.027071   0.000000   0.027071   0.000000  -0.000000  -0.187720   0.000000   0.000000   20.0000     0.0453
    8.500     0.000   0.699342   0.029921   0.000000   0.029921   0.000000   0.000000  -0.195715   0.000000   0.000000   20.0000     0.0450
    9.000     0.000   0.733427   0.032902   0.000000   0.032902   0.000000  -0.000000  -0.203666  -0.000000  -0.000000   20.0000     0.0447
    9.500     0.000   0.767379   0.036013   0.000000   0.036013   0.000000   0.000000  -0.211569   0.000000   0.000000   20.0000     0.0444
   10.000     0.000   0.801194   0.039251   0.000000   0.039251   0.000000   0.000000  -0.219422  -0.000000  -0.000000   20.0000     0.0442
   10.500     0.000   0.834864   0.042614   0.000000   0.042614   0.000000   0.000000  -0.227224  -0.000000  -0.000000   20.0000     0.0440
   11.000     0.000   0.868384   0.046099   0.000000   0.046099   0.000000   0.000000  -0.234971  -0.000000  -0.000000   20.0000     0.0438
   11.500     0.000   0.901749   0.049703   0.000000   0.049703   0.000000  -0.000000  -0.242661  -0.000000  -0.000000   20.0000     0.0436
   12.000     0.000   0.934952   0.053425   0.000000   0.053425   0.000000   0.000000  -0.250293  -0.000000  -0.000000   20.0000     0.0434
   12.500     0.000   0.967989   0.057261   0.000000   0.057261   0.000000   0.000000  -0.257863   0.000000   0.000000   20.0000     0.0433
   13.000     0.000   1.000852   0.061209   0.000000   0.061209   0.000000   0.000000  -0.265369  -0.000000  -0.000000   20.0000     0.0431
   13.500     0.000   1.033537   0.065265   0.000000   0.065265   0.000000  -0.000000  -0.272809   0.000000   0.000000   20.0000     0.0430
   14.000     0.000   1.066039   0.069426   0.000000   0.069426   0.000000  -0.000000  -0.280181   0.000000   0.000000   20.0000     0.0429
   14.500     0.000   1.098352   0.073690   0.000000   0.073690   0.000000   0.000000  -0.287482   0.000000   0.000000   20.0000     0.0428
   15.000     0.000   1.130470   0.078053   0.000000   0.078053   0.000000   0.000000  -0.294711  -0.000000  -0.000000   20.0000     0.0427


